<?xml version="1.0" encoding="UTF-8"?>
<additional xmlns:xsi="http://www.w3.org/2001/XMLSchema-instance" xsi:noNamespaceSchemaLocation="http://sumo.sf.net/xsd/additional_file.xsd">


 <route id="routeLeft1" edges="1to2 2to1"/>
 <route id="routeLeft2" edges="2to1 1to2"/>
    <rerouter id="rerouterTop" edges="1to2">
        <interval begin="0" end="100000">
            <routeProbReroute id="routeLeft1"  />
        </interval>
    </rerouter>
    <rerouter id="rerouterTop" edges="2to1">
        <interval begin="0" end="100000">
            <routeProbReroute id="routeLeft2"  />
        </interval>
    </rerouter>
</additional>
