<?xml version="1.0" encoding="UTF-8"?>
<routes xmlns:xsi="http://www.w3.org/2001/XMLSchema-instance" xsi:noNamespaceSchemaLocation="http://sumo.sf.net/xsd/routes_file.xsd">
    <vType accel="1.5" decel="4.5" id="car" length="5" maxSpeed="40"/>
    <vType accel="0.4" decel="4.5" id="truck" length="12" maxSpeed="60"/>
    <vType accel="2" decel="10" id="rsu" length="12" maxSpeed="10"/>
    <route id="route1" edges="1to2 2to1"/>
    <route id="route2" edges="2to3 3to2"/>
 <vehicle depart="1.0" id="veh8" route="route2" type="rsu" color="1,1,0" departLane="best"/>
 <vehicle depart="2.0" id="veh0" route="route1" type="car" color="1,0,0" departLane="best"/>
 <vehicle depart="2.1" id="veh1" route="route1" type="car" color="1,0,0" departLane="best"/>
 <vehicle depart="2.2" id="veh2" route="route1" type="car" color="1,0,0" departLane="best"/>
 <vehicle depart="2.3" id="veh3" route="route1" type="car" color="1,0,0" departLane="best"/>
 <vehicle depart="2.4" id="veh4" route="route1" type="car" color="1,0,0" departLane="best"/>
 <vehicle depart="2.5" id="veh5" route="route1" type="car" color="1,0,0" departLane="best"/>
 <vehicle depart="2.6" id="veh6" route="route1" type="car" color="1,0,0" departLane="best"/>
 <vehicle depart="2.7" id="veh7" route="route1" type="car" color="1,0,0" departLane="best"/>


</routes>

