<?xml version="1.0" encoding="UTF-8"?>
<nodes version="0.13" xmlns:xsi="http://www.w3.org/2001/XMLSchema-instance" xsi:noNamespaceSchemaLocation="http://sumo.sf.net/xsd/nodes_file.xsd">
    <node id="1" x="0" y="0"/>
    <node id="2" x="1000" y="0"/>
</nodes>
